Circuit: * D:\Projects\Oscilloscope\Model\LTspice\InputStage\InputStage_TimeDomain.asc

Direct Newton iteration failed to find .op point.  (Use ".option noopiter" to skip.)
Starting Gmin stepping
Gmin = 10
Gmin = 1.07374
Gmin = 0.115292
Gmin = 0.0123794
Gmin = 0.00132923
Gmin = 0.000142725
Gmin = 1.5325e-005
Gmin = 1.6455e-006
Gmin = 1.76685e-007
vernier = 0.5
Gmin = 3.29364e-008
vernier = 0.25
vernier = 0.333333
Gmin = 1.91313e-008
vernier = 0.444444
vernier = 0.592592
Gmin = 6.96492e-009
vernier = 0.790123
Gmin = 1.4174e-009
vernier = 1
Gmin = 1.58861e-010
Gmin = 1.70576e-011
Gmin = 1.83154e-012
Gmin = 1.9666e-013
Gmin = 0
Gmin stepping succeeded in finding the operating point.


Date: Sat May 25 21:15:09 2013
Total elapsed time: 0.509 seconds.

tnom = 27
temp = 27
method = modified trap
totiter = 3067
traniter = 2350
tranpoints = 1174
accept = 1140
rejected = 34
matrix size = 18
fillins = 10
solver = Normal
Thread vector: 45.3/21.6[2] 7.8/5.9[2] 4.0/6.4[1] 1.7/2.6[1]  2592/500
Matrix Compiler1: 1,04 KB object code size  2.3/1.8/[1.3]
Matrix Compiler2: 1,57 KB object code size  1.8/2.2/[1.7]


