Circuit: * D:\Projects\Oscilloscope\Model\LTspice\InputStage\InputStage2_TimeDomain.asc

Direct Newton iteration failed to find .op point.  (Use ".option noopiter" to skip.)
Starting Gmin stepping
Gmin = 10
Gmin = 1.07374
Gmin = 0.115292
Gmin = 0.0123794
Gmin = 0.00132923
Gmin = 0.000142725
Gmin = 1.5325e-005
Gmin = 1.6455e-006
Gmin = 1.76685e-007
vernier = 0.5
Gmin = 3.29364e-008
vernier = 0.25
vernier = 0.125
vernier = 0.166667
Gmin = 2.71099e-008
vernier = 0.222222
Gmin = 1.68686e-008
vernier = 0.296296
vernier = 0.395061
Gmin = 7.84652e-009
vernier = 0.526748
vernier = 0.702331
Gmin = 2.39525e-009
vernier = 0.936441
Gmin = 3.72662e-010
vernier = 1
Gmin = 4.05295e-011
Gmin = 4.35182e-012
Gmin = 4.67273e-013
Gmin = 0
Gmin stepping succeeded in finding the operating point.


Date: Sat May 25 21:14:20 2013
Total elapsed time: 0.373 seconds.

tnom = 27
temp = 27
method = trap
totiter = 936
traniter = 0
tranpoints = 0
accept = 0
rejected = 0
matrix size = 44
fillins = 75
solver = Normal
Matrix Compiler1:     275 opcodes
Matrix Compiler2: off  [2.6]/3.5/4.2


